*Heading
** Job name: Job-4 Model name: Model-1
** Generated by: Abaqus/CAE 2021
*Preprint, echo=NO, model=NO, history=NO, contact=NO
**
** PARTS
**
*Part, name=Part-1
*Node
      1,           0.,   17.4799995,          10.
      2,          30.,   17.4799995,          10.
      3,          30.,          20.,          10.
      4,           0.,          20.,          10.
      5,           0.,   17.4799995,           0.
      6,           0.,          20.,           0.
      7,          30.,   17.4799995,           5.
      8,          30.,          20.,           5.
      9,          30.,          20.,           0.
     10,          30.,   17.4799995,           0.
     11,           0.,           0.,           0.
     12,           0.,           0.,          10.
     13,          30.,          10.,           5.
     14,          30.,          10.,           0.
     15,          30.,           0.,           0.
     16,          30.,           0.,          10.
     17,          30.,          10.,          10.
     18,          0.5,   17.4799995,          10.
     19,           1.,   17.4799995,          10.
     20,          1.5,   17.4799995,          10.
** ... 44408 like lines cut
*Element, type=C3D4
    1,  9924,  9925,  9926,  9927
    2,  9924,  9928,  9929,  9930
    3,  9924,  9930,  9926,  9931
    4,  9924,  9929,  9928,  9932
    5,  9924,  9933,  9932,  9934
    6,  9935,  9936,  9937,  9938
    7,  9935,  9939,  9940,  9941
    8,  9935,  9942,  9940,  9939
    9,  9943,  9944,  9945,  2636
   10,  9946,  9947,  9948,  9949
   11,  9949,  9950,  9951,  9952
   12,  9949,  9953,  9952,  9954
   13,  9949,  9948,  9955,  9956
   14,  9951,  9954,  9957,  9949
   15,  9949,  9956,  9958,  9948
   16,  9959,  9960,  9961,  9962
   17,  9962,  9963,  9964,  9965
   18,  9962,  9963,  9965,  9966
   19,  9967,  9968,  9969,  9970
   20,  9971,  9963,  9972,  9962
** ... 241527 like lines cut
*Elset, elset=vs
1
2
3
4
5
6
7
8
9
10
11
12
13
14
15
18
20
21
22
24
** ... 200453 like lines cut
*Elset, elset=ss
16
17
19
23
25
39
41
72
73
74
75
76
78
79
80
81
82
83
123
130
** ... 41054 like lines cut
** Section: sldSec
*Solid Section, elset=ss, material=Material01
,
** Section: voidSec
*Solid Section, elset=vs, material=Material00
,
*End Part
**  
**
** ASSEMBLY
**
*Assembly, name=Assembly
**  
*Instance, name=Part-1-1, part=Part-1
*End Instance
**  
*Nset, nset=Set-1, instance=Part-1-1
 13,
*Nset, nset=_PickedSet6, internal, instance=Part-1-1
    1,    4,    5,    6,   11,   12,  140,  141,  142,  143,  144,  145,  146,  147,  148,  149
  150,  151,  152,  153,  154,  155,  156,  157,  158,  159,  160,  161,  162,  163,  164,  165
  166,  167,  168,  169,  170,  171,  172,  173,  174,  175,  176,  177,  178,  179,  180,  181
  182,  183,  184,  185,  348,  349,  350,  351,  352,  353,  354,  355,  356,  357,  358,  359
  360,  361,  362,  363,  364,  365,  366,  367,  368,  369,  370,  371,  372,  373,  374,  375
  376,  377,  378,  379,  380,  381,  382,  383,  384,  385,  386,  387,  388,  389,  390,  391
  392,  393,  394,  395,  396,  397,  398,  399,  400,  401,  402,  403,  404,  405,  406,  407
  408,  409,  410,  411,  412,  413,  414,  415,  416,  417,  418,  419,  420,  421,  422,  423
  424,  425,  426,  427,  428,  429,  430,  431,  432,  433,  434,  906,  907,  908,  909,  910
  911,  912,  913,  914,  915,  916,  917,  918,  919,  920,  921,  922,  923,  924,  925,  926
  927,  928,  929,  930,  931,  932,  933,  934,  935,  936,  937,  938,  939,  940,  941,  942
  943,  944,  945,  946,  947,  948,  949,  950,  951,  952,  953,  954,  955,  956,  957,  958
  959,  960,  961,  962,  963,  964,  965,  966,  967,  968,  969,  970,  971,  972,  973,  974
  975,  976,  977,  978,  979,  980,  981, 3532, 3533, 3534, 3535, 3536, 3537, 3538, 3539, 3540
 3541, 3542, 3543, 3544, 3545, 3546, 3547, 3548, 3549, 3550, 3551, 3552, 3553, 3554, 3555, 3556
 3557, 3558, 3559, 3560, 3561, 3562, 3563, 3564, 3565, 3566, 3567, 3568, 3569, 3570, 3571, 3572
 3573, 3574, 3575, 3576, 3577, 3578, 3579, 3580, 3581, 3582, 3583, 3584, 3585, 3586, 3587, 3588
 3589, 3590, 3591, 3592, 3593, 3594, 3595, 3596, 3597, 3598, 3599, 3600, 3601, 3602, 3603, 3604
 3605, 3606, 3607, 3608, 3609, 3610, 3611, 3612, 3613, 3614, 3615, 3616, 3617, 3618, 3619, 3620
 3621, 3622, 3623, 3624, 3625, 3626, 3627, 3628, 3629, 3630, 3631, 3632, 3633, 3634, 3635, 3636
** ... 34 like lines cut
*Elset, elset=_PickedSet6, internal, instance=Part-1-1
   1434,   3795,   3813,   3819,   3833,   4186,   4194,   4226,   4227,   4234,   4385,   4404,   4435,   5222,   5244,   5245
   5518,   5651,   5803,   5838,   6552,   6566,   6567,   6568,   6582,   6595,   6596,   6598,   6607,   6608,   6632,   6638
   6639,   6641,   6642,   6648,   6662,   6670,   6684,   6698,   6699,   6702,   6723,   6745,   6774,   6787,   6814,   6832
   6853,   6859,   6873,   6887,   6890,   6895,   6899,   6902,   6906,   6908,   6930,   6937,   6939,   6940,   6949,   6973
   6991,   6993,   7001,   7009,   7018,   7021,   7024,   7031,   7035,   7038,   7052,   7071,   7080,   7081,   7095,   7105
   7109,   7125,   7126,   7137,   7140,   7144,   7150,   7153,   7172,   7184,   7189,   7541,   7587,   7597,   7598,   7599
   7611,   7612,   7627,   7632,   7635,   7645,   7673,   7683,   7686,   7693,   7704,   7707,   7713,   7717,   7757,   7801
   7827,   7829,   7837,   8105,  11355,  11365,  11868,  12059,  14042,  14051,  14052,  14065,  14075,  14368,  14672,  16085
  16412,  16416,  16541,  16583,  16718,  16815,  17437,  17599,  17751,  17752,  17771,  18078,  18081,  18083,  18106,  18422
  18424,  18499,  18504,  18753,  19094,  19112,  19438,  19449,  19664,  20087,  20980,  20987,  21259,  21280,  21306,  21369
  21379,  21513,  21543,  21556,  21588,  21594,  21596,  21601,  21715,  21721,  21736,  21774,  21861,  23003,  23540,  23993
  23996,  24038,  25032,  25145,  25708,  25710,  27859,  28738,  28740,  29222,  29223,  30180,  30726,  30852,  31061,  31766
  32228,  32261,  34504,  34738,  36917,  37153,  37948,  38222,  41707,  41715,  42323,  42996,  44719,  45996,  46304,  46724
  47107,  47143,  47533,  47807,  48717,  49109,  49112,  49114,  49125,  49126,  49128,  49129,  49133,  49139,  49148,  49152
  49157,  49171,  49175,  49179,  49182,  49198,  49214,  49215,  49226,  49234,  49253,  49255,  49256,  49260,  49264,  49265
  49269,  49282,  49313,  49358,  49383,  49425,  49442,  49445,  49476,  49512,  49514,  49617,  49694,  49719,  49720,  49793
  49826,  49837,  49844,  49895,  49915,  49956,  50200,  50303,  50337,  50365,  50368,  50371,  50395,  50405,  50409,  50466
  50471,  50474,  50492,  50552,  50677,  50714,  50745,  50811,  50812,  50940,  50944,  50945,  50946,  50965,  50980,  50981
  50983,  51005,  51012,  51023,  51035,  51038,  51039,  51049,  51065,  51067,  51082,  51091,  51103,  51115,  51131,  51137
  51138,  51154,  51166,  51175,  51181,  51207,  51211,  51226,  51240,  51245,  51253,  51254,  51256,  51266,  51271,  51273
** ... 80 like lines cut
*End Assembly
** 
** MATERIALS
** 
*Material, name=Material00
*Density
 1.16e-09,
*Elastic
 2.1e-06, 0.41
*Material, name=Material01
*Density
 1.16e-09,
*Elastic
2100., 0.41
** ----------------------------------------------------------------
** 
** STEP: Step-1
** 
*Step, name=Step-1, nlgeom=NO
*Static
1., 1., 1e-05, 1.
** 
** BOUNDARY CONDITIONS
** 
** Name: BC-1 Type: Displacement/Rotation
*Boundary
_PickedSet6, 1, 1
_PickedSet6, 2, 2
_PickedSet6, 3, 3
** 
** LOADS
** 
** Name: Load-1   Type: Concentrated force
*Cload
Set-1, 2, -10.
** 
** OUTPUT REQUESTS
** 
*Restart, write, frequency=0
** 
** FIELD OUTPUT: SEDensity
** 
*Output, field
*Node Output
U, 
*Element Output, directions=YES
ELEDEN, EVOL, S
** 
** FIELD OUTPUT: F-Output-1
** 
*Output, field, variable=PRESELECT
** 
** HISTORY OUTPUT: ExtWork
** 
*Output, history
*Energy Output
ALLWK, 
** 
** HISTORY OUTPUT: H-Output-1
** 
*Output, history, variable=PRESELECT
*End Step
