*Heading
** Job name: Job-1 Model name: Model-1
** Generated by: Abaqus/CAE 2021
*Preprint, echo=NO, model=NO, history=NO, contact=NO
**
** PARTS
**
*Part, name=Part-1
*Node
      1,          30.,          20.,           0.
      2,          30.,          20.,           1.
      3,          30.,          20.,           2.
      4,          30.,          20.,           3.
      5,          30.,          20.,           4.
      6,          30.,          20.,           5.
      7,          30.,          20.,           6.
      8,          30.,          20.,           7.
      9,          30.,          20.,           8.
     10,          30.,          20.,           9.
     11,          30.,          20.,          10.
     12,          30.,          19.,           0.
     13,          30.,          19.,           1.
     14,          30.,          19.,           2.
     15,          30.,          19.,           3.
     16,          30.,          19.,           4.
     17,          30.,          19.,           5.
     18,          30.,          19.,           6.
     19,          30.,          19.,           7.
     20,          30.,          19.,           8.
** ... 7141 like lines cut
*Element, type=C3D8R
   1,  232,  233,  244,  243,    1,    2,   13,   12
   2,  233,  234,  245,  244,    2,    3,   14,   13
   3,  234,  235,  246,  245,    3,    4,   15,   14
   4,  235,  236,  247,  246,    4,    5,   16,   15
   5,  236,  237,  248,  247,    5,    6,   17,   16
   6,  237,  238,  249,  248,    6,    7,   18,   17
   7,  238,  239,  250,  249,    7,    8,   19,   18
   8,  239,  240,  251,  250,    8,    9,   20,   19
   9,  240,  241,  252,  251,    9,   10,   21,   20
  10,  241,  242,  253,  252,   10,   11,   22,   21
  11,  243,  244,  255,  254,   12,   13,   24,   23
  12,  244,  245,  256,  255,   13,   14,   25,   24
  13,  245,  246,  257,  256,   14,   15,   26,   25
  14,  246,  247,  258,  257,   15,   16,   27,   26
  15,  247,  248,  259,  258,   16,   17,   28,   27
  16,  248,  249,  260,  259,   17,   18,   29,   28
  17,  249,  250,  261,  260,   18,   19,   30,   29
  18,  250,  251,  262,  261,   19,   20,   31,   30
  19,  251,  252,  263,  262,   20,   21,   32,   31
  20,  252,  253,  264,  263,   21,   22,   33,   32
** ... 5980 like lines cut
*Elset, elset=vs
1
2
3
4
5
6
7
8
9
10
11
12
13
14
15
16
17
18
19
20
** ... 4788 like lines cut
*Elset, elset=ss
65
66
73
74
75
76
77
78
82
83
84
85
86
87
88
89
91
92
93
94
** ... 1172 like lines cut
** Section: sldSec
*Solid Section, elset=ss, material=Material01
,
** Section: voidSec
*Solid Section, elset=vs, material=Material00
,
*End Part
**  
**
** ASSEMBLY
**
*Assembly, name=Assembly
**  
*Instance, name=Part-1-1, part=Part-1
*End Instance
**  
*Nset, nset=Set-1, instance=Part-1-1
 116,
*Nset, nset=Set-2, instance=Part-1-1, generate
 6931,  7161,     1
*Elset, elset=Set-2, instance=Part-1-1, generate
 5801,  6000,     1
*End Assembly
** 
** MATERIALS
** 
*Material, name=Material00
*Density
 1.16e-09,
*Elastic
 2.1e-06, 0.41
*Material, name=Material01
*Density
 1.16e-09,
*Elastic
2100., 0.41
** ----------------------------------------------------------------
** 
** STEP: Step-1
** 
*Step, name=Step-1, nlgeom=NO
*Static
1., 1., 1e-05, 1.
** 
** BOUNDARY CONDITIONS
** 
** Name: BC-1 Type: Displacement/Rotation
*Boundary
Set-2, 1, 1
Set-2, 2, 2
Set-2, 3, 3
Set-2, 4, 4
Set-2, 5, 5
Set-2, 6, 6
** 
** LOADS
** 
** Name: Load-1   Type: Concentrated force
*Cload
Set-1, 2, -10.
** 
** OUTPUT REQUESTS
** 
*Restart, write, frequency=0
** 
** FIELD OUTPUT: SEDensity
** 
*Output, field
*Node Output
U, 
*Element Output, directions=YES
ELEDEN, EVOL, S
** 
** FIELD OUTPUT: F-Output-1
** 
*Output, field, variable=PRESELECT
** 
** HISTORY OUTPUT: ExtWork
** 
*Output, history
*Energy Output
ALLWK, 
** 
** HISTORY OUTPUT: H-Output-1
** 
*Output, history, variable=PRESELECT
*End Step
