*Heading
** Job name: Job-2 Model name: Model-1
** Generated by: Abaqus/CAE 2021
*Preprint, echo=NO, model=NO, history=NO, contact=NO
**
** PARTS
**
*Part, name=Part-1
*Node
      1,          30.,          20.,           5.
      2,          30.,          10.,           5.
      3,          30.,          10.,           0.
      4,          30.,          20.,           0.
      5,           0.,           0.,           0.
      6,           0.,          20.,           0.
      7,          30.,           0.,           0.
      8,           0.,           0.,          10.
      9,           0.,          20.,          10.
     10,          30.,          20.,          10.
     11,          30.,          10.,          10.
     12,          30.,           0.,          10.
     13,          30.,   18.5714283,           5.
     14,          30.,   17.1428566,           5.
     15,          30.,   15.7142859,           5.
     16,          30.,   14.2857141,           5.
     17,          30.,   12.8571424,           5.
     18,          30.,   11.4285717,           5.
     19,          30.,          10.,   3.33333325
     20,          30.,          10.,   1.66666663
** ... 2644 like lines cut
*Element, type=C3D4
    1, 1039, 1040, 1041, 1042
    2, 1039, 1043, 1044, 1045
    3, 1039, 1043, 1045, 1046
    4, 1039, 1047, 1046, 1045
    5, 1048, 1049, 1050, 1051
    6, 1048, 1052, 1053, 1054
    7, 1048, 1055, 1056, 1052
    8, 1048, 1051, 1050, 1056
    9, 1057, 1058, 1059, 1060
   10, 1057, 1061, 1062, 1063
   11, 1057, 1059, 1062, 1060
   12, 1057, 1064, 1065, 1061
   13, 1065, 1057, 1058, 1064
   14, 1066, 1067, 1068, 1069
   15, 1070, 1066, 1071, 1072
   16, 1066, 1069, 1073, 1067
   17, 1066, 1071, 1074, 1075
   18, 1066, 1074, 1071, 1072
   19, 1066, 1074, 1072, 1076
   20, 1066, 1075, 1076, 1073
** ... 12709 like lines cut
*Elset, elset=vs
5
6
7
8
10
17
18
19
20
24
25
26
27
28
32
34
36
37
38
39
** ... 10322 like lines cut
*Elset, elset=ss
1
2
3
4
9
11
12
13
14
15
16
21
22
23
29
30
31
33
35
53
** ... 2367 like lines cut
** Section: sldSec
*Solid Section, elset=ss, material=Material01
,
** Section: voidSec
*Solid Section, elset=vs, material=Material00
,
*End Part
**  
**
** ASSEMBLY
**
*Assembly, name=Assembly
**  
*Instance, name=Part-1-1, part=Part-1
*End Instance
**  
*Nset, nset=Set-1, instance=Part-1-1
 2,
*Nset, nset=Set-2, instance=Part-1-1
   5,   6,   8,   9,  29,  30,  31,  32,  33,  34,  35,  36,  37,  38,  39,  40
  41,  86,  87,  88,  89,  90,  91,  92,  93,  94,  95,  96,  97,  98,  99, 100
 101, 102, 103, 104, 105, 106, 107, 108, 109, 110, 432, 433, 434, 435, 436, 437
 438, 439, 440, 441, 442, 443, 444, 445, 446, 447, 448, 449, 450, 451, 452, 453
 454, 455, 456, 457, 458, 459, 460, 461, 462, 463, 464, 465, 466, 467, 468, 469
 470, 471, 472, 473, 474, 475, 476, 477, 478, 479, 480, 481, 482, 483, 484, 485
 486, 487, 488, 489, 490, 491, 492, 493, 494, 495, 496, 497, 498, 499, 500, 501
 502, 503, 504, 505, 506, 507, 508, 509
*Elset, elset=Set-2, instance=Part-1-1
  1614,  1629,  1707,  1790,  1800,  1812,  2048,  2050,  2078,  2081,  2101,  2110,  2111,  2118,  2121,  2128
  2152,  2156,  2157,  2171,  2177,  2182,  2184,  2222,  2232,  2238,  2252,  2253,  2270,  2273,  2313,  2348
  2473,  3456,  3484,  3575,  3580,  3594,  3601,  3613,  3619,  3629,  3650,  3659,  3670,  3672,  3673,  3677
  3683,  3697,  3702,  3708,  3710,  3713,  3716,  3718,  3719,  3745,  3746,  3748,  3750,  3758,  3764,  3769
  3782,  3792,  3797,  3798,  3802,  3803,  3813,  3818,  3819,  3823,  3824,  3827,  3832,  3838,  3850,  3857
  3867,  3868,  3876,  3890,  3894,  3895,  3900,  3903,  3905,  3907,  3909,  3914,  3920,  3932,  3937,  3951
  3954,  3961,  3963,  3988,  3991,  3994,  3997,  4009,  4013,  4015,  4018,  4021,  4025,  4044,  4056,  4059
  4070,  4074,  4081,  4082,  4090,  4095,  4099,  4106,  4112,  4135,  4136,  4148,  4151,  4157,  4162,  4164
  4167,  4168,  4169,  4173,  4178,  4202,  4210,  4222,  4240,  4300,  4329,  4390,  4508,  4667,  5752,  6057
  6162,  6163,  6167,  6179,  6181,  6191,  6194,  6238,  6253,  6366,  6466,  6473,  6568,  6569,  6570,  6573
  6617,  6775,  6986,  7095,  7110,  7276,  7603,  7612,  7628,  7637,  7648,  7926,  8145,  8181,  8225,  8237
  8759,  8760,  8772,  9224,  9559,  9563,  9859, 10179, 10257, 10350, 10734, 10951, 10953, 11254, 11386, 11505
 12009, 12102, 12104, 12122
*End Assembly
** 
** MATERIALS
** 
*Material, name=Material00
*Density
 1.16e-09,
*Elastic
 2.1e-06, 0.41
*Material, name=Material01
*Density
 1.16e-09,
*Elastic
2100., 0.41
** ----------------------------------------------------------------
** 
** STEP: Step-1
** 
*Step, name=Step-1, nlgeom=NO
*Static
1., 1., 1e-05, 1.
** 
** BOUNDARY CONDITIONS
** 
** Name: BC-1 Type: Displacement/Rotation
*Boundary
Set-2, 1, 1
Set-2, 2, 2
Set-2, 3, 3
Set-2, 4, 4
Set-2, 5, 5
Set-2, 6, 6
** 
** LOADS
** 
** Name: Load-1   Type: Concentrated force
*Cload
Set-1, 2, -10.
** 
** OUTPUT REQUESTS
** 
*Restart, write, frequency=0
** 
** FIELD OUTPUT: SEDensity
** 
*Output, field
*Node Output
U, 
*Element Output, directions=YES
ELEDEN, EVOL, S
** 
** FIELD OUTPUT: F-Output-1
** 
*Output, field, variable=PRESELECT
** 
** HISTORY OUTPUT: ExtWork
** 
*Output, history
*Energy Output
ALLWK, 
** 
** HISTORY OUTPUT: H-Output-1
** 
*Output, history, variable=PRESELECT
*End Step
