*Heading
** Job name: Job-1 Model name: Model-1
** Generated by: Abaqus/CAE 2020
*Preprint, echo=NO, model=NO, history=NO, contact=NO
**
** PARTS
**
*Part, name=Part-1
*Node
      1,           0.,           0.,           0.
      2,           0.,           0.,           1.
      3,           0.,           0.,           2.
      4,           0.,           0.,           3.
      5,           0.,           0.,           4.
      6,           0.,           0.,           5.
      7,           0.,           0.,           6.
      8,           0.,           0.,           7.
      9,           0.,           0.,           8.
     10,           0.,           0.,           9.
     11,           0.,           0.,          10.
     12,           0.,           0.,          11.
     13,           0.,           0.,          12.
     14,           0.,           0.,          13.
     15,           0.,           0.,          14.
     16,           0.,           0.,          15.
     17,           0.,           0.,          16.
     18,           0.,           0.,          17.
     19,           0.,           0.,          18.
     20,           0.,           0.,          19.
** ... 27491 like lines cut
*Element, type=C3D8
    1,   452,   453,   494,   493,     1,     2,    43,    42
    2,   453,   454,   495,   494,     2,     3,    44,    43
    3,   454,   455,   496,   495,     3,     4,    45,    44
    4,   455,   456,   497,   496,     4,     5,    46,    45
    5,   456,   457,   498,   497,     5,     6,    47,    46
    6,   457,   458,   499,   498,     6,     7,    48,    47
    7,   458,   459,   500,   499,     7,     8,    49,    48
    8,   459,   460,   501,   500,     8,     9,    50,    49
    9,   460,   461,   502,   501,     9,    10,    51,    50
   10,   461,   462,   503,   502,    10,    11,    52,    51
   11,   462,   463,   504,   503,    11,    12,    53,    52
   12,   463,   464,   505,   504,    12,    13,    54,    53
   13,   464,   465,   506,   505,    13,    14,    55,    54
   14,   465,   466,   507,   506,    14,    15,    56,    55
   15,   466,   467,   508,   507,    15,    16,    57,    56
   16,   467,   468,   509,   508,    16,    17,    58,    57
   17,   468,   469,   510,   509,    17,    18,    59,    58
   18,   469,   470,   511,   510,    18,    19,    60,    59
   19,   470,   471,   512,   511,    19,    20,    61,    60
   20,   471,   472,   513,   512,    20,    21,    62,    61
** ... 23980 like lines cut
*Elset, elset=vs
1
2
3
4
5
6
7
8
9
10
11
12
13
14
15
16
17
18
19
20
** ... 20404 like lines cut
*Elset, elset=ss
99
100
101
102
137
138
139
140
141
142
143
144
177
178
179
180
181
182
183
184
** ... 3556 like lines cut
** Section: sldSec
*Solid Section, elset=ss, material=Material01
,
** Section: voidSec
*Solid Section, elset=vs, material=Material00
,
*End Part
**  
**
** ASSEMBLY
**
*Assembly, name=Assembly
**  
*Instance, name=Part-1-1, part=Part-1
*End Instance
**  
*Nset, nset=Set-1, instance=Part-1-1, generate
 27061,  27511,      1
*Elset, elset=Set-1, instance=Part-1-1, generate
 23601,  24000,      1
*Elset, elset=_Surf-1_S2, internal, instance=Part-1-1
 180, 181, 220, 221
*Surface, type=ELEMENT, name=Surf-1
_Surf-1_S2, S2
*End Assembly
** 
** MATERIALS
** 
*Material, name=Material00
*Density
0.,
*Elastic
 1e-09, 0.3
*Material, name=Material01
*Density
78.,
*Elastic
1., 0.3
** ----------------------------------------------------------------
** 
** STEP: Step-1
** 
*Step, name=Step-1, nlgeom=NO
*Static
1., 1., 1e-05, 1.
** 
** BOUNDARY CONDITIONS
** 
** Name: BC-1 Type: Displacement/Rotation
*Boundary
Set-1, 1, 1
Set-1, 2, 2
Set-1, 3, 3
Set-1, 4, 4
Set-1, 5, 5
Set-1, 6, 6
** 
** LOADS
** 
** Name: Load-1   Type: Surface traction
*Dsload
Surf-1, TRSHR, 0.25, 0., 0., -1.
** 
** OUTPUT REQUESTS
** 
*Restart, write, frequency=0
** 
** FIELD OUTPUT: SEDensity
** 
*Output, field
*Node Output
U, 
*Element Output, directions=YES
ELEDEN, EVOL, S
** 
** FIELD OUTPUT: F-Output-1
** 
*Output, field, variable=PRESELECT
** 
** HISTORY OUTPUT: ExtWork
** 
*Output, history
*Energy Output
ALLWK, 
** 
** HISTORY OUTPUT: H-Output-1
** 
*Output, history, variable=PRESELECT
*End Step
