*Heading
** Job name: Job-1 Model name: Model-1
** Generated by: Abaqus/CAE 2020
*Preprint, echo=NO, model=NO, history=NO, contact=NO
**
** PARTS
**
*Part, name=Part-1
*Node
      1,           0.,           0.,           0.
      2,           0.,           1.,           0.
      3,           0.,           2.,           0.
      4,           0.,           3.,           0.
      5,           0.,           4.,           0.
      6,           0.,           5.,           0.
      7,           0.,           6.,           0.
      8,           0.,           7.,           0.
      9,           0.,           8.,           0.
     10,           0.,           9.,           0.
     11,           0.,          10.,           0.
     12,           0.,          11.,           0.
     13,           0.,          12.,           0.
     14,           0.,          13.,           0.
     15,           0.,          14.,           0.
     16,           0.,          15.,           0.
     17,           0.,          16.,           0.
     18,           0.,          17.,           0.
     19,           0.,          18.,           0.
     20,           0.,          19.,           0.
** ... 103741 like lines cut
*Element, type=C3D8
    1,   1282,   1283,   1304,   1303,      1,      2,     23,     22
    2,   1283,   1284,   1305,   1304,      2,      3,     24,     23
    3,   1284,   1285,   1306,   1305,      3,      4,     25,     24
    4,   1285,   1286,   1307,   1306,      4,      5,     26,     25
    5,   1286,   1287,   1308,   1307,      5,      6,     27,     26
    6,   1287,   1288,   1309,   1308,      6,      7,     28,     27
    7,   1288,   1289,   1310,   1309,      7,      8,     29,     28
    8,   1289,   1290,   1311,   1310,      8,      9,     30,     29
    9,   1290,   1291,   1312,   1311,      9,     10,     31,     30
   10,   1291,   1292,   1313,   1312,     10,     11,     32,     31
   11,   1292,   1293,   1314,   1313,     11,     12,     33,     32
   12,   1293,   1294,   1315,   1314,     12,     13,     34,     33
   13,   1294,   1295,   1316,   1315,     13,     14,     35,     34
   14,   1295,   1296,   1317,   1316,     14,     15,     36,     35
   15,   1296,   1297,   1318,   1317,     15,     16,     37,     36
   16,   1297,   1298,   1319,   1318,     16,     17,     38,     37
   17,   1298,   1299,   1320,   1319,     17,     18,     39,     38
   18,   1299,   1300,   1321,   1320,     18,     19,     40,     39
   19,   1300,   1301,   1322,   1321,     19,     20,     41,     40
   20,   1301,   1302,   1323,   1322,     20,     21,     42,     41
** ... 95980 like lines cut
*Elset, elset=vs
61
62
63
64
65
66
67
68
69
70
71
72
73
74
75
76
77
78
79
80
** ... 83220 like lines cut
*Elset, elset=Non_Design
1
2
3
4
5
6
7
8
9
10
11
12
13
14
15
16
17
18
19
20
** ... 12740 like lines cut
** Section: sldSec
*Solid Section, elset=ss, material=Material01
,
** Section: voidSec
*Solid Section, elset=vs, material=Material00
,
*End Part
**  
**
** ASSEMBLY
**
*Assembly, name=Assembly
**  
*Instance, name=Part-1-1, part=Part-1
*End Instance
**  
*Elset, elset=Set-2, instance=Part-1-1, generate
 92401,  96000,      1
*Nset, nset=Set-3, instance=Part-1-1
    1,    2,    3,    4,    5,    6,    7,    8,    9,   10,   11,   12,   13,   14,   15,   16
   17,   18,   19,   20,   21, 1261, 1262, 1263, 1264, 1265, 1266, 1267, 1268, 1269, 1270, 1271
 1272, 1273, 1274, 1275, 1276, 1277, 1278, 1279, 1280, 1281
*Elset, elset=Set-3, instance=Part-1-1
    1,    2,    3,    4,    5,    6,    7,    8,    9,   10,   11,   12,   13,   14,   15,   16
   17,   18,   19,   20, 1181, 1182, 1183, 1184, 1185, 1186, 1187, 1188, 1189, 1190, 1191, 1192
 1193, 1194, 1195, 1196, 1197, 1198, 1199, 1200
*Elset, elset=_Surf-1_S1, internal, instance=Part-1-1, generate
 94801,  96000,      1
*Surface, type=ELEMENT, name=Surf-1
_Surf-1_S1, S1
*End Assembly
** 
** MATERIALS
** 
*Material, name=Material00
*Density
0.,
*Elastic
 1e-09, 0.3
*Material, name=Material01
*Density
78.,
*Elastic
1., 0.3
** ----------------------------------------------------------------
** 
** STEP: Step-1
** 
*Step, name=Step-1, nlgeom=NO
*Static
1., 1., 1e-05, 1.
** 
** BOUNDARY CONDITIONS
** 
** Name: BC-1 Type: Displacement/Rotation
*Boundary
Set-3, 1, 1
Set-3, 2, 2
Set-3, 3, 3
Set-3, 4, 4
Set-3, 5, 5
Set-3, 6, 6
** 
** LOADS
** 
** Name: Load-1   Type: Pressure
*Dsload
Surf-1, P, 1.
** 
** OUTPUT REQUESTS
** 
*Restart, write, frequency=0
** 
** FIELD OUTPUT: SEDensity
** 
*Output, field
*Node Output
U, 
*Element Output, directions=YES
ELEDEN, EVOL, S
** 
** FIELD OUTPUT: F-Output-1
** 
*Output, field, variable=PRESELECT
** 
** HISTORY OUTPUT: ExtWork
** 
*Output, history
*Energy Output
ALLWK, 
** 
** HISTORY OUTPUT: H-Output-1
** 
*Output, history, variable=PRESELECT
*End Step
